# generated using pymatgen
data_Mg3Bi
_symmetry_space_group_name_H-M   'P 1'
_cell_length_a   6.56347205
_cell_length_b   6.56347136
_cell_length_c   5.32346572
_cell_angle_alpha   90.00000000
_cell_angle_beta   90.00000000
_cell_angle_gamma   119.99999732
_symmetry_Int_Tables_number   1
_chemical_formula_structural   Mg3Bi
_chemical_formula_sum   'Mg6 Bi2'
_cell_volume   198.60598876
_cell_formula_units_Z   2
loop_
 _symmetry_equiv_pos_site_id
 _symmetry_equiv_pos_as_xyz
  1  'x, y, z'
loop_
 _atom_site_type_symbol
 _atom_site_label
 _atom_site_symmetry_multiplicity
 _atom_site_fract_x
 _atom_site_fract_y
 _atom_site_fract_z
 _atom_site_occupancy
  Mg  Mg0  1  0.678444  0.839222  0.750000  1
  Mg  Mg1  1  0.160778  0.321556  0.750000  1
  Mg  Mg2  1  0.160778  0.839222  0.750000  1
  Mg  Mg3  1  0.839222  0.678444  0.250000  1
  Mg  Mg4  1  0.839222  0.160778  0.250000  1
  Mg  Mg5  1  0.321556  0.160778  0.250000  1
  Bi  Bi6  1  0.666667  0.333333  0.750000  1
  Bi  Bi7  1  0.333333  0.666667  0.250000  1
